LTspice 24.0.12 for Windows
Circuit: * C:\Users\Marcus Serrano\Documents\LTspice\Lab4prelabp3.asc
Start Time: Tue Oct  1 21:44:59 2024
solver = Normal
Maximum thread count: 12
tnom = 27
temp = 27
method = modified trap
Direct Newton iteration for .op point succeeded.
Changing Tseed to 9.76562e-12
Total elapsed time: 0.035 seconds.

