LTspice 24.0.12 for Windows
Circuit: * C:\Users\Marcus Serrano\Documents\LTspice\Lab5p1.asc
Start Time: Sat Oct 26 21:44:10 2024
solver = Normal
Maximum thread count: 12
tnom = 27
temp = 27
method = modified trap
Total elapsed time: 0.078 seconds.

