LTspice 24.0.12 for Windows
Circuit: * C:\Users\Marcus Serrano\Documents\LTspice\Lab6p4.asc
Start Time: Sat Oct 26 17:56:18 2024
solver = Normal
Maximum thread count: 12
tnom = 27
temp = 27
method = modified trap
.OP point found by inspection.
Total elapsed time: 0.037 seconds.

