LTspice 24.0.12 for Windows
Circuit: * C:\Users\Marcus Serrano\Documents\LTspice\Lab7p2.asc
Start Time: Wed Nov  6 01:46:30 2024
Warning: Multiple definitions of model "2scr375p" Type: BJT
Warning: Multiple definitions of model "bc857b" Type: BJT
Warning: Multiple definitions of model "bc847c" Type: BJT
Warning: Multiple definitions of model "bc847b" Type: BJT
solver = Normal
Maximum thread count: 12
tnom = 27
temp = 27
method = modified trap
Total elapsed time: 0.024 seconds.

