LTspice 24.0.12 for Windows
Circuit: * C:\Users\Marcus Serrano\Documents\LTspice\ProjectU2.asc
Start Time: Tue Oct  8 14:31:39 2024
solver = Normal
Maximum thread count: 12
tnom = 27
temp = 27
method = modified trap
Total elapsed time: 0.082 seconds.

